Version 4
SHEET 1 880 840
WIRE 224 -144 224 -160
WIRE -144 -112 -320 -112
WIRE 304 -112 272 -112
WIRE 16 0 16 -16
WIRE -144 48 -144 -112
WIRE -80 48 -144 48
WIRE 304 64 80 64
WIRE -144 80 -320 80
WIRE -80 80 -144 80
WIRE 16 160 16 144
WIRE 128 160 16 160
WIRE 224 160 224 -80
WIRE 224 160 128 160
WIRE 16 272 16 256
WIRE -144 320 -144 80
WIRE -80 320 -144 320
WIRE 304 336 80 336
WIRE -144 352 -320 352
WIRE -80 352 -144 352
WIRE 16 432 16 416
WIRE 128 432 128 160
WIRE 128 432 16 432
WIRE 16 544 16 528
WIRE -144 592 -144 352
WIRE -80 592 -144 592
WIRE 304 608 80 608
WIRE -80 624 -320 624
WIRE 16 704 16 688
WIRE 64 704 16 704
WIRE 128 704 128 432
WIRE 128 704 64 704
WIRE 64 736 64 704
FLAG 16 528 Vdd
IOPIN 16 528 In
FLAG 16 256 Vdd
IOPIN 16 256 In
FLAG 16 -16 Vdd
IOPIN 16 -16 In
FLAG -320 624 B0
IOPIN -320 624 In
FLAG -320 352 B1
IOPIN -320 352 In
FLAG -320 80 B2
IOPIN -320 80 In
FLAG 304 64 G2
IOPIN 304 64 Out
FLAG 304 336 G1
IOPIN 304 336 Out
FLAG 304 608 G0
IOPIN 304 608 Out
FLAG -320 -112 B3
IOPIN -320 -112 In
FLAG 64 736 Gnd
IOPIN 64 736 In
FLAG 304 -112 G3
IOPIN 304 -112 Out
FLAG 160 -112 B3
IOPIN 160 -112 In
FLAG 224 -160 Vdd
IOPIN 224 -160 In
SYMBOL xor 64 48 R0
SYMATTR InstName X1
SYMBOL xor 64 320 R0
SYMATTR InstName X2
SYMBOL xor 64 592 R0
SYMATTR InstName X3
SYMBOL Buff 224 -112 R0
SYMATTR InstName X4
