Version 4
SHEET 1 880 680
WIRE 256 16 256 0
WIRE 256 16 160 16
WIRE 336 16 256 16
WIRE 160 32 160 16
WIRE 192 32 160 32
WIRE 336 32 336 16
WIRE 336 32 304 32
WIRE 192 80 192 32
WIRE 192 80 160 80
WIRE 304 80 304 32
WIRE 336 80 304 80
WIRE 256 128 160 128
WIRE 336 128 256 128
WIRE 256 160 256 128
WIRE 336 160 256 160
WIRE 256 176 256 160
WIRE 304 224 256 224
WIRE 304 320 304 224
WIRE 304 320 256 320
WIRE 304 368 304 320
WIRE 304 368 256 368
WIRE 256 416 256 368
FLAG 256 0 vdd
IOPIN 256 0 In
FLAG -176 -16 vdd
IOPIN -176 -16 In
FLAG 112 48 A
IOPIN 112 48 In
FLAG -176 128 A
IOPIN -176 128 In
FLAG 208 256 A
IOPIN 208 256 In
FLAG 208 352 B
IOPIN 208 352 In
FLAG -176 288 B
IOPIN -176 288 In
FLAG 384 48 B
IOPIN 384 48 In
FLAG -176 64 0
FLAG -176 208 0
FLAG -176 368 0
FLAG 256 416 0
FLAG 336 160 Y
IOPIN 336 160 Out
SYMBOL pmos4 112 128 M180
WINDOW 3 56 72 Left 1
SYMATTR InstName M1
SYMBOL pmos4 384 128 R180
WINDOW 3 56 72 Left 1
SYMATTR InstName M2
SYMBOL nmos4 208 176 R0
WINDOW 3 56 72 Left 1
SYMATTR InstName M3
SYMBOL nmos4 208 272 R0
WINDOW 3 56 72 Left 1
SYMATTR InstName M4
SYMBOL voltage -176 -32 R0
WINDOW 123 0 0 Left 0
WINDOW 39 0 0 Left 0
SYMATTR InstName V1
SYMATTR Value 2
SYMBOL voltage -176 112 R0
WINDOW 3 24 96 Left 0
WINDOW 123 0 0 Left 0
WINDOW 39 0 0 Left 0
SYMATTR InstName V2
SYMATTR Value PULSE(0 2 0 0.001 0.001 2 4)
SYMBOL voltage -176 272 R0
WINDOW 3 24 96 Left 0
WINDOW 123 0 0 Left 0
WINDOW 39 0 0 Left 0
SYMATTR InstName V3
SYMATTR Value PULSE(0 2 0 0.001 0.001 4 8)
TEXT -240 440 Left 2 !.tran 10
TEXT 24 -128 Left 2 ;CMOS NAND
