Version 4
SHEET 1 880 680
WIRE 352 176 352 160
WIRE 272 208 256 208
WIRE 448 224 432 224
WIRE 272 240 256 240
WIRE 352 288 352 272
FLAG 256 208 A
IOPIN 256 208 In
FLAG -80 112 A
IOPIN -80 112 In
FLAG 256 240 B
IOPIN 256 240 In
FLAG -80 256 B
IOPIN -80 256 In
FLAG 352 160 vdd
IOPIN 352 160 In
FLAG 128 112 vdd
IOPIN 128 112 In
FLAG -80 192 0
FLAG -80 336 0
FLAG 352 288 0
FLAG 448 224 Y
IOPIN 448 224 Out
FLAG 128 192 0
SYMBOL and 368 224 R0
SYMATTR InstName X1
SYMBOL voltage 128 96 R0
WINDOW 123 0 0 Left 0
WINDOW 39 0 0 Left 0
SYMATTR InstName V1
SYMATTR Value 2
SYMBOL voltage -80 96 R0
WINDOW 3 24 96 Left 0
WINDOW 123 0 0 Left 0
WINDOW 39 0 0 Left 0
SYMATTR Value PULSE(0 2 4 0.001 0.001 4 8)
SYMATTR InstName V2
SYMBOL voltage -80 240 R0
WINDOW 3 24 96 Left 0
WINDOW 123 0 0 Left 0
WINDOW 39 0 0 Left 0
SYMATTR Value PULSE(0 2 2 0.001 0.001 2 4)
SYMATTR InstName V3
TEXT -200 376 Left 2 !.tran 8
