Version 4
SHEET 1 880 680
WIRE 464 -64 464 -80
WIRE 464 -64 240 -64
WIRE 560 -64 464 -64
WIRE 240 -48 240 -64
WIRE 560 -32 560 -64
WIRE 144 0 112 0
WIRE 480 0 464 0
WIRE 336 16 304 16
WIRE 656 16 640 16
WIRE 144 32 112 32
WIRE 480 32 464 32
WIRE 240 112 240 96
WIRE 464 112 240 112
WIRE 560 112 560 64
WIRE 560 112 464 112
WIRE 464 128 464 112
FLAG 112 0 A
IOPIN 112 0 In
FLAG 464 0 A
IOPIN 464 0 In
FLAG 112 32 B
IOPIN 112 32 In
FLAG 464 32 B
IOPIN 464 32 In
FLAG 336 16 sum
IOPIN 336 16 Out
FLAG 656 16 carry
IOPIN 656 16 Out
FLAG 464 -80 vdd
IOPIN 464 -80 In
FLAG 464 128 gnd
IOPIN 464 128 In
SYMBOL xor 288 0 R0
SYMATTR InstName X1
SYMBOL and 576 16 R0
SYMATTR InstName X2
