Version 4
SHEET 1 880 680
FLAG -144 128 0
FLAG 304 176 0
FLAG 624 144 0
FLAG -144 320 0
FLAG -144 48 A
IOPIN -144 48 In
FLAG 208 80 A
IOPIN 208 80 In
FLAG 544 80 A
IOPIN 544 80 In
FLAG 32 128 0
FLAG 32 48 vdd
IOPIN 32 48 In
FLAG 304 32 vdd
IOPIN 304 32 In
FLAG 624 48 vdd
IOPIN 624 48 In
FLAG -144 240 B
IOPIN -144 240 In
FLAG 208 112 B
IOPIN 208 112 In
FLAG 544 112 B
IOPIN 544 112 In
FLAG 368 96 Sum
IOPIN 368 96 Out
FLAG 704 96 Carry
IOPIN 704 96 Out
SYMBOL xor 352 80 R0
SYMATTR InstName X1
SYMBOL and 640 96 R0
SYMATTR InstName X2
SYMBOL voltage -144 32 R0
WINDOW 3 24 96 Left 0
WINDOW 123 0 0 Left 0
WINDOW 39 0 0 Left 0
SYMATTR InstName V1
SYMATTR Value PULSE(0 2 4 0.001 0.001 4 8)
SYMBOL voltage -144 224 R0
WINDOW 3 24 96 Left 0
WINDOW 123 0 0 Left 0
WINDOW 39 0 0 Left 0
SYMATTR InstName V2
SYMATTR Value PULSE(0 2 2 0.001 0.001 2 4)
SYMBOL voltage 32 32 R0
WINDOW 123 0 0 Left 0
WINDOW 39 0 0 Left 0
SYMATTR InstName V3
SYMATTR Value 2
TEXT -256 384 Left 2 !.tran 8
